data_graphite\(0\0\1)
_audit_creation_date              2024-05-06
_audit_creation_method            'Materials Studio'
_symmetry_space_group_name_H-M    'P1'
_symmetry_Int_Tables_number       1
_symmetry_cell_setting            triclinic
loop_
_symmetry_equiv_pos_as_xyz
  x,y,z
_cell_length_a                    22.1400
_cell_length_b                    22.1400
_cell_length_c                    28.4000
_cell_angle_alpha                 90.0000
_cell_angle_beta                  90.0000
_cell_angle_gamma                 120.0000
loop_
_atom_site_label
_atom_site_type_symbol
_atom_site_fract_x
_atom_site_fract_y
_atom_site_fract_z
_atom_site_U_iso_or_equiv
_atom_site_adp_type
_atom_site_occupancy
C1     C     0.00000   0.00000   0.00000   0.00000  Uiso   1.00
C2     C     0.03704   0.07407   0.00000   0.00000  Uiso   1.00
C3     C     0.11111   0.00000   0.00000   0.00000  Uiso   1.00
C4     C     0.14815   0.07407   0.00000   0.00000  Uiso   1.00
C5     C     0.22222   0.00000   0.00000   0.00000  Uiso   1.00
C6     C     0.25926   0.07407   0.00000   0.00000  Uiso   1.00
C7     C     0.33333  -0.00000   0.00000   0.00000  Uiso   1.00
C8     C     0.37037   0.07407   0.00000   0.00000  Uiso   1.00
C9     C     0.44444   0.00000   0.00000   0.00000  Uiso   1.00
C10    C     0.48148   0.07407   0.00000   0.00000  Uiso   1.00
C11    C     0.55556  -0.00000   0.00000   0.00000  Uiso   1.00
C12    C     0.59259   0.07407   0.00000   0.00000  Uiso   1.00
C13    C     0.66667  -0.00000   0.00000   0.00000  Uiso   1.00
C14    C     0.70370   0.07407   0.00000   0.00000  Uiso   1.00
C15    C     0.77778  -0.00000   0.00000   0.00000  Uiso   1.00
C16    C     0.81481   0.07407   0.00000   0.00000  Uiso   1.00
C17    C     0.88889   0.00000   0.00000   0.00000  Uiso   1.00
C18    C     0.92593   0.07407   0.00000   0.00000  Uiso   1.00
C19    C     0.00000   0.11111   0.00000   0.00000  Uiso   1.00
C20    C     0.03704   0.18519   0.00000   0.00000  Uiso   1.00
C21    C     0.11111   0.11111   0.00000   0.00000  Uiso   1.00
C22    C     0.14815   0.18519   0.00000   0.00000  Uiso   1.00
C23    C     0.22222   0.11111   0.00000   0.00000  Uiso   1.00
C24    C     0.25926   0.18519   0.00000   0.00000  Uiso   1.00
C25    C     0.33333   0.11111   0.00000   0.00000  Uiso   1.00
C26    C     0.37037   0.18519   0.00000   0.00000  Uiso   1.00
C27    C     0.44444   0.11111   0.00000   0.00000  Uiso   1.00
C28    C     0.48148   0.18519   0.00000   0.00000  Uiso   1.00
C29    C     0.55556   0.11111   0.00000   0.00000  Uiso   1.00
C30    C     0.59259   0.18519   0.00000   0.00000  Uiso   1.00
C31    C     0.66667   0.11111   0.00000   0.00000  Uiso   1.00
C32    C     0.70370   0.18519   0.00000   0.00000  Uiso   1.00
C33    C     0.77778   0.11111   0.00000   0.00000  Uiso   1.00
C34    C     0.81481   0.18519   0.00000   0.00000  Uiso   1.00
C35    C     0.88889   0.11111   0.00000   0.00000  Uiso   1.00
C36    C     0.92593   0.18519   0.00000   0.00000  Uiso   1.00
C37    C     0.00000   0.22222   0.00000   0.00000  Uiso   1.00
C38    C     0.03704   0.29630   0.00000   0.00000  Uiso   1.00
C39    C     0.11111   0.22222   0.00000   0.00000  Uiso   1.00
C40    C     0.14815   0.29630   0.00000   0.00000  Uiso   1.00
C41    C     0.22222   0.22222   0.00000   0.00000  Uiso   1.00
C42    C     0.25926   0.29630   0.00000   0.00000  Uiso   1.00
C43    C     0.33333   0.22222   0.00000   0.00000  Uiso   1.00
C44    C     0.37037   0.29630   0.00000   0.00000  Uiso   1.00
C45    C     0.44444   0.22222   0.00000   0.00000  Uiso   1.00
C46    C     0.48148   0.29630   0.00000   0.00000  Uiso   1.00
C47    C     0.55556   0.22222   0.00000   0.00000  Uiso   1.00
C48    C     0.59259   0.29630   0.00000   0.00000  Uiso   1.00
C49    C     0.66667   0.22222   0.00000   0.00000  Uiso   1.00
C50    C     0.70370   0.29630   0.00000   0.00000  Uiso   1.00
C51    C     0.77778   0.22222   0.00000   0.00000  Uiso   1.00
C52    C     0.81481   0.29630   0.00000   0.00000  Uiso   1.00
C53    C     0.88889   0.22222   0.00000   0.00000  Uiso   1.00
C54    C     0.92593   0.29630   0.00000   0.00000  Uiso   1.00
C55    C     0.00000   0.33333   0.00000   0.00000  Uiso   1.00
C56    C     0.03704   0.40741   0.00000   0.00000  Uiso   1.00
C57    C     0.11111   0.33333   0.00000   0.00000  Uiso   1.00
C58    C     0.14815   0.40741   0.00000   0.00000  Uiso   1.00
C59    C     0.22222   0.33333   0.00000   0.00000  Uiso   1.00
C60    C     0.25926   0.40741   0.00000   0.00000  Uiso   1.00
C61    C     0.33333   0.33333   0.00000   0.00000  Uiso   1.00
C62    C     0.37037   0.40741   0.00000   0.00000  Uiso   1.00
C63    C     0.44444   0.33333   0.00000   0.00000  Uiso   1.00
C64    C     0.48148   0.40741   0.00000   0.00000  Uiso   1.00
C65    C     0.55556   0.33333   0.00000   0.00000  Uiso   1.00
C66    C     0.59259   0.40741   0.00000   0.00000  Uiso   1.00
C67    C     0.66667   0.33333   0.00000   0.00000  Uiso   1.00
C68    C     0.70370   0.40741   0.00000   0.00000  Uiso   1.00
C69    C     0.77778   0.33333   0.00000   0.00000  Uiso   1.00
C70    C     0.81481   0.40741   0.00000   0.00000  Uiso   1.00
C71    C     0.88889   0.33333   0.00000   0.00000  Uiso   1.00
C72    C     0.92593   0.40741   0.00000   0.00000  Uiso   1.00
C73    C     0.00000   0.44444   0.00000   0.00000  Uiso   1.00
C74    C     0.03704   0.51852   0.00000   0.00000  Uiso   1.00
C75    C     0.11111   0.44444   0.00000   0.00000  Uiso   1.00
C76    C     0.14815   0.51852   0.00000   0.00000  Uiso   1.00
C77    C     0.22222   0.44444   0.00000   0.00000  Uiso   1.00
C78    C     0.25926   0.51852   0.00000   0.00000  Uiso   1.00
C79    C     0.33333   0.44444   0.00000   0.00000  Uiso   1.00
C80    C     0.37037   0.51852   0.00000   0.00000  Uiso   1.00
C81    C     0.44444   0.44444   0.00000   0.00000  Uiso   1.00
C82    C     0.48148   0.51852   0.00000   0.00000  Uiso   1.00
C83    C     0.55556   0.44444   0.00000   0.00000  Uiso   1.00
C84    C     0.59259   0.51852   0.00000   0.00000  Uiso   1.00
C85    C     0.66667   0.44444   0.00000   0.00000  Uiso   1.00
C86    C     0.70370   0.51852   0.00000   0.00000  Uiso   1.00
C87    C     0.77778   0.44444   0.00000   0.00000  Uiso   1.00
C88    C     0.81481   0.51852   0.00000   0.00000  Uiso   1.00
C89    C     0.88889   0.44444   0.00000   0.00000  Uiso   1.00
C90    C     0.92593   0.51852   0.00000   0.00000  Uiso   1.00
C91    C     0.00000   0.55556   0.00000   0.00000  Uiso   1.00
C92    C     0.03704   0.62963   0.00000   0.00000  Uiso   1.00
C93    C     0.11111   0.55556   0.00000   0.00000  Uiso   1.00
C94    C     0.14815   0.62963   0.00000   0.00000  Uiso   1.00
C95    C     0.22222   0.55556   0.00000   0.00000  Uiso   1.00
C96    C     0.25926   0.62963   0.00000   0.00000  Uiso   1.00
C97    C     0.33333   0.55556   0.00000   0.00000  Uiso   1.00
C98    C     0.37037   0.62963   0.00000   0.00000  Uiso   1.00
C99    C     0.44444   0.55556   0.00000   0.00000  Uiso   1.00
C100   C     0.48148   0.62963   0.00000   0.00000  Uiso   1.00
C101   C     0.55556   0.55556   0.00000   0.00000  Uiso   1.00
C102   C     0.59259   0.62963   0.00000   0.00000  Uiso   1.00
C103   C     0.66667   0.55556   0.00000   0.00000  Uiso   1.00
C104   C     0.70370   0.62963   0.00000   0.00000  Uiso   1.00
C105   C     0.77778   0.55556   0.00000   0.00000  Uiso   1.00
C106   C     0.81481   0.62963   0.00000   0.00000  Uiso   1.00
C107   C     0.88889   0.55556   0.00000   0.00000  Uiso   1.00
C108   C     0.92593   0.62963   0.00000   0.00000  Uiso   1.00
C109   C     0.00000   0.66667   0.00000   0.00000  Uiso   1.00
C110   C     0.03704   0.74074   0.00000   0.00000  Uiso   1.00
C111   C     0.11111   0.66667   0.00000   0.00000  Uiso   1.00
C112   C     0.14815   0.74074   0.00000   0.00000  Uiso   1.00
C113   C     0.22222   0.66667   0.00000   0.00000  Uiso   1.00
C114   C     0.25926   0.74074   0.00000   0.00000  Uiso   1.00
C115   C     0.33333   0.66667   0.00000   0.00000  Uiso   1.00
C116   C     0.37037   0.74074   0.00000   0.00000  Uiso   1.00
C117   C     0.44444   0.66667   0.00000   0.00000  Uiso   1.00
C118   C     0.48148   0.74074   0.00000   0.00000  Uiso   1.00
C119   C     0.55556   0.66667   0.00000   0.00000  Uiso   1.00
C120   C     0.59259   0.74074   0.00000   0.00000  Uiso   1.00
C121   C     0.66667   0.66667   0.00000   0.00000  Uiso   1.00
C122   C     0.70370   0.74074   0.00000   0.00000  Uiso   1.00
C123   C     0.77778   0.66667   0.00000   0.00000  Uiso   1.00
C124   C     0.81481   0.74074   0.00000   0.00000  Uiso   1.00
C125   C     0.88889   0.66667   0.00000   0.00000  Uiso   1.00
C126   C     0.92593   0.74074   0.00000   0.00000  Uiso   1.00
C127   C     0.00000   0.77778   0.00000   0.00000  Uiso   1.00
C128   C     0.03704   0.85185   0.00000   0.00000  Uiso   1.00
C129   C     0.11111   0.77778   0.00000   0.00000  Uiso   1.00
C130   C     0.14815   0.85185   0.00000   0.00000  Uiso   1.00
C131   C     0.22222   0.77778   0.00000   0.00000  Uiso   1.00
C132   C     0.25926   0.85185   0.00000   0.00000  Uiso   1.00
C133   C     0.33333   0.77778   0.00000   0.00000  Uiso   1.00
C134   C     0.37037   0.85185   0.00000   0.00000  Uiso   1.00
C135   C     0.44444   0.77778   0.00000   0.00000  Uiso   1.00
C136   C     0.48148   0.85185   0.00000   0.00000  Uiso   1.00
C137   C     0.55556   0.77778   0.00000   0.00000  Uiso   1.00
C138   C     0.59259   0.85185   0.00000   0.00000  Uiso   1.00
C139   C     0.66667   0.77778   0.00000   0.00000  Uiso   1.00
C140   C     0.70370   0.85185   0.00000   0.00000  Uiso   1.00
C141   C     0.77778   0.77778   0.00000   0.00000  Uiso   1.00
C142   C     0.81481   0.85185   0.00000   0.00000  Uiso   1.00
C143   C     0.88889   0.77778   0.00000   0.00000  Uiso   1.00
C144   C     0.92593   0.85185   0.00000   0.00000  Uiso   1.00
C145   C     0.00000   0.88889   0.00000   0.00000  Uiso   1.00
C146   C     0.03704   0.96296   0.00000   0.00000  Uiso   1.00
C147   C     0.11111   0.88889   0.00000   0.00000  Uiso   1.00
C148   C     0.14815   0.96296   0.00000   0.00000  Uiso   1.00
C149   C     0.22222   0.88889   0.00000   0.00000  Uiso   1.00
C150   C     0.25926   0.96296   0.00000   0.00000  Uiso   1.00
C151   C     0.33333   0.88889   0.00000   0.00000  Uiso   1.00
C152   C     0.37037   0.96296   0.00000   0.00000  Uiso   1.00
C153   C     0.44444   0.88889   0.00000   0.00000  Uiso   1.00
C154   C     0.48148   0.96296   0.00000   0.00000  Uiso   1.00
C155   C     0.55556   0.88889   0.00000   0.00000  Uiso   1.00
C156   C     0.59259   0.96296   0.00000   0.00000  Uiso   1.00
C157   C     0.66667   0.88889   0.00000   0.00000  Uiso   1.00
C158   C     0.70370   0.96296   0.00000   0.00000  Uiso   1.00
C159   C     0.77778   0.88889   0.00000   0.00000  Uiso   1.00
C160   C     0.81481   0.96296   0.00000   0.00000  Uiso   1.00
C161   C     0.88889   0.88889   0.00000   0.00000  Uiso   1.00
C162   C     0.92593   0.96296   0.00000   0.00000  Uiso   1.00
loop_
_geom_bond_atom_site_label_1
_geom_bond_atom_site_label_2
_geom_bond_distance
_geom_bond_site_symmetry_2
_ccdc_geom_bond_type
C1     C2      1.420   .     A
C1     C162    1.420   1_445 A
C1     C146    1.420   1_545 A
C2     C21     1.420   .     A
C2     C19     1.420   .     A
C3     C4      1.420   .     A
C3     C146    1.420   1_545 A
C3     C148    1.420   1_545 A
C4     C23     1.420   .     A
C4     C21     1.420   .     A
C5     C6      1.420   .     A
C5     C148    1.420   1_545 A
C5     C150    1.420   1_545 A
C6     C25     1.420   .     A
C6     C23     1.420   .     A
C7     C8      1.420   .     A
C7     C150    1.420   1_545 A
C7     C152    1.420   1_545 A
C8     C27     1.420   .     A
C8     C25     1.420   .     A
C9     C10     1.420   .     A
C9     C152    1.420   1_545 A
C9     C154    1.420   1_545 A
C10    C29     1.420   .     A
C10    C27     1.420   .     A
C11    C12     1.420   .     A
C11    C154    1.420   1_545 A
C11    C156    1.420   1_545 A
C12    C31     1.420   .     A
C12    C29     1.420   .     A
C13    C14     1.420   .     A
C13    C156    1.420   1_545 A
C13    C158    1.420   1_545 A
C14    C33     1.420   .     A
C14    C31     1.420   .     A
C15    C16     1.420   .     A
C15    C158    1.420   1_545 A
C15    C160    1.420   1_545 A
C16    C35     1.420   .     A
C16    C33     1.420   .     A
C17    C18     1.420   .     A
C17    C160    1.420   1_545 A
C17    C162    1.420   1_545 A
C18    C19     1.420   1_655 A
C18    C35     1.420   .     A
C19    C20     1.420   .     A
C19    C18     1.420   1_455 A
C20    C39     1.420   .     A
C20    C37     1.420   .     A
C21    C22     1.420   .     A
C22    C41     1.420   .     A
C22    C39     1.420   .     A
C23    C24     1.420   .     A
C24    C43     1.420   .     A
C24    C41     1.420   .     A
C25    C26     1.420   .     A
C26    C45     1.420   .     A
C26    C43     1.420   .     A
C27    C28     1.420   .     A
C28    C47     1.420   .     A
C28    C45     1.420   .     A
C29    C30     1.420   .     A
C30    C49     1.420   .     A
C30    C47     1.420   .     A
C31    C32     1.420   .     A
C32    C51     1.420   .     A
C32    C49     1.420   .     A
C33    C34     1.420   .     A
C34    C53     1.420   .     A
C34    C51     1.420   .     A
C35    C36     1.420   .     A
C36    C37     1.420   1_655 A
C36    C53     1.420   .     A
C37    C38     1.420   .     A
C37    C36     1.420   1_455 A
C38    C57     1.420   .     A
C38    C55     1.420   .     A
C39    C40     1.420   .     A
C40    C59     1.420   .     A
C40    C57     1.420   .     A
C41    C42     1.420   .     A
C42    C61     1.420   .     A
C42    C59     1.420   .     A
C43    C44     1.420   .     A
C44    C63     1.420   .     A
C44    C61     1.420   .     A
C45    C46     1.420   .     A
C46    C65     1.420   .     A
C46    C63     1.420   .     A
C47    C48     1.420   .     A
C48    C67     1.420   .     A
C48    C65     1.420   .     A
C49    C50     1.420   .     A
C50    C69     1.420   .     A
C50    C67     1.420   .     A
C51    C52     1.420   .     A
C52    C71     1.420   .     A
C52    C69     1.420   .     A
C53    C54     1.420   .     A
C54    C55     1.420   1_655 A
C54    C71     1.420   .     A
C55    C56     1.420   .     A
C55    C54     1.420   1_455 A
C56    C75     1.420   .     A
C56    C73     1.420   .     A
C57    C58     1.420   .     A
C58    C77     1.420   .     A
C58    C75     1.420   .     A
C59    C60     1.420   .     A
C60    C79     1.420   .     A
C60    C77     1.420   .     A
C61    C62     1.420   .     A
C62    C81     1.420   .     A
C62    C79     1.420   .     A
C63    C64     1.420   .     A
C64    C83     1.420   .     A
C64    C81     1.420   .     A
C65    C66     1.420   .     A
C66    C85     1.420   .     A
C66    C83     1.420   .     A
C67    C68     1.420   .     A
C68    C87     1.420   .     A
C68    C85     1.420   .     A
C69    C70     1.420   .     A
C70    C89     1.420   .     A
C70    C87     1.420   .     A
C71    C72     1.420   .     A
C72    C73     1.420   1_655 A
C72    C89     1.420   .     A
C73    C74     1.420   .     A
C73    C72     1.420   1_455 A
C74    C93     1.420   .     A
C74    C91     1.420   .     A
C75    C76     1.420   .     A
C76    C95     1.420   .     A
C76    C93     1.420   .     A
C77    C78     1.420   .     A
C78    C97     1.420   .     A
C78    C95     1.420   .     A
C79    C80     1.420   .     A
C80    C99     1.420   .     A
C80    C97     1.420   .     A
C81    C82     1.420   .     A
C82    C101    1.420   .     A
C82    C99     1.420   .     A
C83    C84     1.420   .     A
C84    C103    1.420   .     A
C84    C101    1.420   .     A
C85    C86     1.420   .     A
C86    C105    1.420   .     A
C86    C103    1.420   .     A
C87    C88     1.420   .     A
C88    C107    1.420   .     A
C88    C105    1.420   .     A
C89    C90     1.420   .     A
C90    C91     1.420   1_655 A
C90    C107    1.420   .     A
C91    C92     1.420   .     A
C91    C90     1.420   1_455 A
C92    C111    1.420   .     A
C92    C109    1.420   .     A
C93    C94     1.420   .     A
C94    C113    1.420   .     A
C94    C111    1.420   .     A
C95    C96     1.420   .     A
C96    C115    1.420   .     A
C96    C113    1.420   .     A
C97    C98     1.420   .     A
C98    C117    1.420   .     A
C98    C115    1.420   .     A
C99    C100    1.420   .     A
C100   C119    1.420   .     A
C100   C117    1.420   .     A
C101   C102    1.420   .     A
C102   C121    1.420   .     A
C102   C119    1.420   .     A
C103   C104    1.420   .     A
C104   C123    1.420   .     A
C104   C121    1.420   .     A
C105   C106    1.420   .     A
C106   C125    1.420   .     A
C106   C123    1.420   .     A
C107   C108    1.420   .     A
C108   C109    1.420   1_655 A
C108   C125    1.420   .     A
C109   C110    1.420   .     A
C109   C108    1.420   1_455 A
C110   C129    1.420   .     A
C110   C127    1.420   .     A
C111   C112    1.420   .     A
C112   C131    1.420   .     A
C112   C129    1.420   .     A
C113   C114    1.420   .     A
C114   C133    1.420   .     A
C114   C131    1.420   .     A
C115   C116    1.420   .     A
C116   C135    1.420   .     A
C116   C133    1.420   .     A
C117   C118    1.420   .     A
C118   C137    1.420   .     A
C118   C135    1.420   .     A
C119   C120    1.420   .     A
C120   C139    1.420   .     A
C120   C137    1.420   .     A
C121   C122    1.420   .     A
C122   C141    1.420   .     A
C122   C139    1.420   .     A
C123   C124    1.420   .     A
C124   C143    1.420   .     A
C124   C141    1.420   .     A
C125   C126    1.420   .     A
C126   C127    1.420   1_655 A
C126   C143    1.420   .     A
C127   C128    1.420   .     A
C127   C126    1.420   1_455 A
C128   C147    1.420   .     A
C128   C145    1.420   .     A
C129   C130    1.420   .     A
C130   C149    1.420   .     A
C130   C147    1.420   .     A
C131   C132    1.420   .     A
C132   C151    1.420   .     A
C132   C149    1.420   .     A
C133   C134    1.420   .     A
C134   C153    1.420   .     A
C134   C151    1.420   .     A
C135   C136    1.420   .     A
C136   C155    1.420   .     A
C136   C153    1.420   .     A
C137   C138    1.420   .     A
C138   C157    1.420   .     A
C138   C155    1.420   .     A
C139   C140    1.420   .     A
C140   C159    1.420   .     A
C140   C157    1.420   .     A
C141   C142    1.420   .     A
C142   C161    1.420   .     A
C142   C159    1.420   .     A
C143   C144    1.420   .     A
C144   C145    1.420   1_655 A
C144   C161    1.420   .     A
C145   C146    1.420   .     A
C145   C144    1.420   1_455 A
C146   C3      1.420   1_565 A
C146   C1      1.420   1_565 A
C147   C148    1.420   .     A
C148   C5      1.420   1_565 A
C148   C3      1.420   1_565 A
C149   C150    1.420   .     A
C150   C7      1.420   1_565 A
C150   C5      1.420   1_565 A
C151   C152    1.420   .     A
C152   C9      1.420   1_565 A
C152   C7      1.420   1_565 A
C153   C154    1.420   .     A
C154   C11     1.420   1_565 A
C154   C9      1.420   1_565 A
C155   C156    1.420   .     A
C156   C13     1.420   1_565 A
C156   C11     1.420   1_565 A
C157   C158    1.420   .     A
C158   C15     1.420   1_565 A
C158   C13     1.420   1_565 A
C159   C160    1.420   .     A
C160   C17     1.420   1_565 A
C160   C15     1.420   1_565 A
C161   C162    1.420   .     A
C162   C1      1.420   1_665 A
C162   C17     1.420   1_565 A
